/*--------------------------------*- C++ -*----------------------------------*\
  =========                 |
  \\      /  F ield         | OpenFOAM: The Open Source CFD Toolbox
   \\    /   O peration     | Website:  https://openfoam.org
    \\  /    A nd           | Version:  10
     \\/     M anipulation  |
\*---------------------------------------------------------------------------*/
FoamFile
{
    format      ascii;
    class       polyBoundaryMesh;
    location    "constant/polyMesh";
    object      boundary;
}
// * * * * * * * * * * * * * * * * * * * * * * * * * * * * * * * * * * * * * //

5
(
    front_and_back
    {
        type            patch;
        physicalType    patch;
        nFaces          800;
        startFace       760;
    }
    bottom
    {
        type            patch;
        physicalType    patch;
        nFaces          20;
        startFace       1560;
    }
    right
    {
        type            patch;
        physicalType    patch;
        nFaces          20;
        startFace       1580;
    }
    top
    {
        type            patch;
        physicalType    patch;
        nFaces          20;
        startFace       1600;
    }
    left
    {
        type            patch;
        physicalType    patch;
        nFaces          20;
        startFace       1620;
    }
)

// ************************************************************************* //
