/*--------------------------------*- C++ -*----------------------------------*\
  =========                 |
  \\      /  F ield         | OpenFOAM: The Open Source CFD Toolbox
   \\    /   O peration     | Website:  https://openfoam.org
    \\  /    A nd           | Version:  10
     \\/     M anipulation  |
\*---------------------------------------------------------------------------*/
FoamFile
{
    format      ascii;
    class       polyBoundaryMesh;
    location    "constant/polyMesh";
    object      boundary;
}
// * * * * * * * * * * * * * * * * * * * * * * * * * * * * * * * * * * * * * //

4
(
    end1
    {
        type            patch;
        nFaces          5;
        startFace       445;
    }
    end2
    {
        type            patch;
        nFaces          5;
        startFace       450;
    }
    insulated
    {
        type            patch;
        nFaces          100;
        startFace       455;
    }
    top_and_bottom
    {
        type            empty;
        inGroups        List<word> 1(empty);
        nFaces          500;
        startFace       555;
    }
)

// ************************************************************************* //
