/*--------------------------------*- C++ -*----------------------------------*\
  =========                 |
  \\      /  F ield         | OpenFOAM: The Open Source CFD Toolbox
   \\    /   O peration     | Website:  https://openfoam.org
    \\  /    A nd           | Version:  10
     \\/     M anipulation  |
\*---------------------------------------------------------------------------*/
FoamFile
{
    format      ascii;
    class       dictionary;
    object      blockMeshDict;
}
// * * * * * * * * * * * * * * * * * * * * * * * * * * * * * * * * * * * * * //

convertToMeters 1;

vertices
(
    name p0 (-1 -1 -1)
    name p1 (1 -1 -1)
    name p2 (1 1 -1)
    name p3 (-1 1 -1)
    name p4 (-1 -1 1)
    name p5 (1 -1 1)
    name p6 (1 1 1)
    name p7 (-1 1 1)
);

blocks
(
    hex (p0 p1 p2 p3 p4 p5 p6 p7) (10 10 1) simpleGrading (1 1 1)
);

boundary
(
    left
    {
        type patch;
        faces
        (
            (p0 p4 p7 p3)
        );
    }
    right
    {
        type patch;
        faces
        (
            (p1 p2 p6 p5)
        );
    }
    bottom
    {
        type patch;
        faces
        (
            (p0 p1 p5 p4)
        );
    }
    top
    {
        type patch;
        faces
        (
            (p3 p7 p6 p2)
        );
    }
    front_and_back
    {
        type empty;
        faces
        (
            (p5 p6 p7 p4)
            (p0 p3 p2 p1)
        );
    }
);


// ************************************************************************* //
