/*--------------------------------*- C++ -*----------------------------------*\
  =========                 |
  \\      /  F ield         | OpenFOAM: The Open Source CFD Toolbox
   \\    /   O peration     | Website:  https://openfoam.org
    \\  /    A nd           | Version:  10
     \\/     M anipulation  |
\*---------------------------------------------------------------------------*/
FoamFile
{
    format      ascii;
    class       volScalarField;
    object      p;
}
// * * * * * * * * * * * * * * * * * * * * * * * * * * * * * * * * * * * * * //

dimensions      [0 2 -2 0 0 0 0];

internalField   uniform 0;

boundaryField
{
    wall
    {
        type            zeroGradient;
    }

    right
    {
        type            fixedValue;
        value           uniform 6.371e4;
    }

    left
    {
        type            zeroGradient;
    }
    
    top
    {
        type            zeroGradient;
    }
    
    symmetry
    {
        type            zeroGradient;
    }
    
    front_and_back
    {
        type            empty;
    }
}

// ************************************************************************* //
