/*--------------------------------*- C++ -*----------------------------------*\
  =========                 |
  \\      /  F ield         | OpenFOAM: The Open Source CFD Toolbox
   \\    /   O peration     | Website:  https://openfoam.org
    \\  /    A nd           | Version:  10
     \\/     M anipulation  |
\*---------------------------------------------------------------------------*/
FoamFile
{
    format      ascii;
    class       volVectorField;
    object      U;
}
// * * * * * * * * * * * * * * * * * * * * * * * * * * * * * * * * * * * * * //

dimensions      [0 1 -1 0 0 0 0];

internalField   uniform (149.3 0 0);

boundaryField
{
    wall
    {
        type            noSlip;
    }

    right
    {
        type            zeroGradient;
    }

    left
    {
        type            fixedValue;
        value           uniform (149.3 0 0);
    }
    
    top
    {
        type            fixedValue;
        value           uniform (149.3 0 0);
    }
    
    symmetry
    {
        type            fixedValue;
        value           uniform (149.3 0 0);
    }
    
    front_and_back
    {
        type            empty;
    }
}

// ************************************************************************* //
