/*--------------------------------*- C++ -*----------------------------------*\
  =========                 |
  \\      /  F ield         | OpenFOAM: The Open Source CFD Toolbox
   \\    /   O peration     | Website:  https://openfoam.org
    \\  /    A nd           | Version:  10
     \\/     M anipulation  |
\*---------------------------------------------------------------------------*/
FoamFile
{
    format      ascii;
    class       volScalarField;
    object      T;
}
// * * * * * * * * * * * * * * * * * * * * * * * * * * * * * * * * * * * * * //

dimensions      [0 0 0 1 0 0 0];

internalField   uniform 273;

boundaryField
{
    end1
    {
        type            fixedValue;
        value           uniform 373;
    }

    end2
    {
        type            fixedValue;
        value           uniform 273;
    }

    insulated
    {
        type            zeroGradient;
    }
    
    top_and_bottom
    {
        type            empty;
    }
}

// ************************************************************************* //
